tests/data/power_flow/asym-line/input.json
{
  "version": "1.0",
  "type": "input",
  "is_batch": false,
  "attributes": {},
  "data": {
    "node": [
      {
        "id": 1,
        "u_rated": 10000.0
      },
      {
        "id": 2,
        "u_rated": 10000.0
      },
      {
        "id": 3,
        "u_rated": 10000.0
      }
    ],
    "asym_line": [
      {
        "id": 4,
        "from_node": 1,
        "to_node": 2,
        "from_status": 1,
        "to_status": 1,
        "r_aa": 0.6904,
        "r_ba": 0.0495,
        "r_bb": 0.6904,
        "r_ca": 0.0492,
        "r_cb": 0.0495,
        "r_cc": 0.6904,
        "r_na": 0.0495,
        "r_nb": 0.0492,
        "r_nc": 0.0495,
        "r_nn": 0.6904,
        "x_aa": 0.8316,
        "x_ba": 0.7559,
        "x_bb": 0.8316,
        "x_ca": 0.7339,
        "x_cb": 0.7559,
        "x_cc": 0.8316,
        "x_na": 0.7559,
        "x_nb": 0.7339,
        "x_nc": 0.7559,
        "x_nn": 0.8316,
        "c0" : 0.32,
        "c1" : 0.54, 
        "i_n" : 115.0
      },
      {
          "id": 5,
          "from_node": 1,
          "to_node": 2,
          "from_status": 1,
          "to_status": 1,
          "r_aa": 0.6904,
          "r_ba": 0.0495,
          "r_bb": 0.6904,
          "r_ca": 0.0492,
          "r_cb": 0.0495,
          "r_cc": 0.6904,
          "r_na": 0.0495,
          "r_nb": 0.0492,
          "r_nc": 0.0495,
          "r_nn": 0.6904,
          "x_aa": 0.8316,
          "x_ba": 0.7559,
          "x_bb": 0.8316,
          "x_ca": 0.7339,
          "x_cb": 0.7559,
          "x_cc": 0.8316,
          "x_na": 0.7559,
          "x_nb": 0.7339,
          "x_nc": 0.7559,
          "x_nn": 0.8316,
          "c0" : 0.32,
          "c1" : 0.54, 
          "i_n" : 115.0
        }
    ],
    "asym_load": [
      {
        "id": 6,
        "node": 1,
        "status": 1,
        "type": 1,
        "p_specified": [1000.0, 1000.0, 1000.0],
        "q_specified": [1000.0, 1000.0, 1000.0]
      },
      {
        "id": 7,
        "node": 2,
        "status": 1,
        "type": 1,
        "p_specified": [1000.0, 1000.0, 1000.0],
        "q_specified": [1000.0, 1000.0, 1000.0]
      },
      {
        "id": 8,
        "node": 3,
        "status": 1,
        "type": 1,
        "p_specified": [1000.0, 1000.0, 1000.0],
        "q_specified": [1000.0, 1000.0, 1000.0]
      }
    ]
  }
}